/*---------------------------------------------------------------------------*\
| =========                 |                                                 |
| \\      /  F ield         | OpenFOAM: The Open Source CFD Toolbox           |
|  \\    /   O peration     | Version:  v1712                                 |
|   \\  /    A nd           | Web:      www.OpenFOAM.com                      |
|    \\/     M anipulation  |                                                 |
\*---------------------------------------------------------------------------*/
Build  : v1712
Arch   : "LSB;label=32;scalar=64"
Exec   : checkMesh
Date   : Jul 29 2019
Time   : 15:54:13
Host   : "uc1n996.localdomain"
PID    : 47903
I/O    : uncollated
Case   : /pfs/data2/home/es/es_es/es_asaramet/OpenFOAM/motorBike
nProcs : 1
trapFpe: Floating point exception trapping enabled (FOAM_SIGFPE).
fileModificationChecking : Monitoring run-time modified files using timeStampMaster (fileModificationSkew 10)
allowSystemOperations : Allowing user-supplied system call operations

// * * * * * * * * * * * * * * * * * * * * * * * * * * * * * * * * * * * * * //
Create time

Create mesh for time = 0

Time = 0

Mesh stats
    points:           405879
    faces:            1107304
    internal faces:   1057150
    cells:            353419
    faces per cell:   6.12433
    boundary patches: 72
    point zones:      0
    face zones:       0
    cell zones:       0

Overall number of cells of each type:
    hexahedra:     308375
    prisms:        7274
    wedges:        923
    pyramids:      3
    tet wedges:    1680
    tetrahedra:    55
    polyhedra:     35109
    Breakdown of polyhedra by number of faces:
        faces   number of cells
            4   3963
            5   6571
            6   5429
            7   2995
            8   1292
            9   10630
           10   15
           11   5
           12   2338
           13   2
           15   1616
           17   1
           18   249
           21   3

Checking topology...
    Boundary definition OK.
    Cell to face addressing OK.
    Point usage OK.
    Upper triangular ordering OK.
    Face vertices OK.
    Number of regions: 1 (OK).

Checking patch topology for multiply connected surfaces...
                   Patch    Faces   Points                  Surface topology
            frontAndBack      360      420  ok (non-closed singly connected)
                   inlet       72       90  ok (non-closed singly connected)
                  outlet       72       90  ok (non-closed singly connected)
               lowerWall     5376     5702  ok (non-closed singly connected)
               upperWall      160      189  ok (non-closed singly connected)
    motorBike_frt-fairing:001%1     5336     9922  multiply connected (shared edge)
    motorBike_windshield:002%2       51       86  ok (non-closed singly connected)
    motorBike_rr-wh-rim:005%5      119      219  ok (non-closed singly connected)
    motorBike_rr-wh-rim:010%10      356      676  ok (non-closed singly connected)
    motorBike_fr-wh-rim:011%11      501      826  ok (non-closed singly connected)
    motorBike_fr-wh-brake-disk:012%12       42       84  ok (non-closed singly connected)
    motorBike_frame:016-shadow%13      102      229  ok (non-closed singly connected)
    motorBike_rear-susp:014%14      800     1472  ok (non-closed singly connected)
    motorBike_rear-susp:014-shadow%15      459     1175  ok (non-closed singly connected)
    motorBike_frame:016%16       64      170  ok (non-closed singly connected)
    motorBike_rr-wh-rim:005-shadow%17       70      163  ok (non-closed singly connected)
    motorBike_rr-wh-chain-hub:022%22      132      218  ok (non-closed singly connected)
    motorBike_rearseat%24      422      513  ok (non-closed singly connected)
    motorBike_frt-fairing%25      615      853  ok (non-closed singly connected)
    motorBike_windshield%26      375      801  ok (non-closed singly connected)
    motorBike_headlights%27      155      255  ok (non-closed singly connected)
    motorBike_driversseat%28      361      554  ok (non-closed singly connected)
    motorBike_rear-body%29     2038     2517  ok (non-closed singly connected)
    motorBike_fuel-tank%30      883     1216  ok (non-closed singly connected)
    motorBike_exhaust%31     2350     3008  ok (non-closed singly connected)
    motorBike_rr-wh-rim%32     1374     1739  ok (non-closed singly connected)
    motorBike_fr-mud-guard%33      628     1219  ok (non-closed singly connected)
    motorBike_fr-wh-rim%34      575      792  ok (non-closed singly connected)
    motorBike_fr-wh-brake-disk%35      432      679  ok (non-closed singly connected)
    motorBike_fr-brake-caliper%36      156      209  ok (non-closed singly connected)
    motorBike_fr-wh-tyre%37     1107     1554  ok (non-closed singly connected)
      motorBike_hbars%38      523      671  multiply connected (shared edge)
    motorBike_fr-forks%39     1098     1468  ok (non-closed singly connected)
      motorBike_chain%40      449      569  ok (non-closed singly connected)
    motorBike_rr-wh-tyre%41     1841     2426  ok (non-closed singly connected)
    motorBike_square-dial%42        6       12  ok (non-closed singly connected)
    motorBike_round-dial%43       15       29  ok (non-closed singly connected)
    motorBike_dial-holder%44       89      133  ok (non-closed singly connected)
    motorBike_rear-susp%45     1731     2174  multiply connected (shared edge)
    motorBike_rear-brake-lights%46       54       87  ok (non-closed singly connected)
    motorBike_rear-light-bracket%47      157      206  ok (non-closed singly connected)
      motorBike_frame%48     1996     2439  ok (non-closed singly connected)
    motorBike_rear-mud-guard%49      627     1209  ok (non-closed singly connected)
    motorBike_rear-susp-spring-damp%50       94      202  ok (non-closed singly connected)
    motorBike_fairing-inner-plate%51      437      569  ok (non-closed singly connected)
    motorBike_clutch-housing%52      927     1113  ok (non-closed singly connected)
    motorBike_radiator%53       58       88  multiply connected (shared edge)
    motorBike_water-pipe%54       92      111  multiply connected (shared edge)
    motorBike_water-pump%55       73      100  ok (non-closed singly connected)
     motorBike_engine%56     2309     2587  ok (non-closed singly connected)
    motorBike_rear-shock-link%57       28       55  ok (non-closed singly connected)
    motorBike_rear-brake-fluid-pot-bracket%58       38       71  ok (non-closed singly connected)
    motorBike_rear-brake-fluid-pot%59       51       61  ok (non-closed singly connected)
    motorBike_footpeg%60       89      125  ok (non-closed singly connected)
    motorBike_rr-wh-chain-hub%61      126      239  ok (non-closed singly connected)
    motorBike_rear-brake-caliper%62      142      171  ok (non-closed singly connected)
    motorBike_rider-helmet%65      757     1002  ok (non-closed singly connected)
    motorBike_rider-visor%66      165      266  ok (non-closed singly connected)
    motorBike_rider-boots%67     1001     1324  ok (non-closed singly connected)
    motorBike_rider-gloves%68      313      402  ok (non-closed singly connected)
    motorBike_rider-body%69     4575     5793  ok (non-closed singly connected)
    motorBike_frame:0%70       37       61  ok (non-closed singly connected)
    motorBike_frt-fairing:001-shadow%74     3295     8472  ok (non-closed singly connected)
    motorBike_windshield-shadow%75      247      653  ok (non-closed singly connected)
    motorBike_fr-mud-guard-shadow%81      367      978  ok (non-closed singly connected)
    motorBike_fr-wh-brake-disk-shadow%83      201      484  ok (non-closed singly connected)
    motorBike_rear-mud-guard-shadow%84      431     1055  ok (non-closed singly connected)
    motorBike_rear-susp-spring-damp-shadow%85       54      154  ok (non-closed singly connected)
    motorBike_radiator-shadow%86       17       52  ok (non-closed singly connected)
    motorBike_rear-shock-link-shadow%87       10       33  ok (non-closed singly connected)
    motorBike_rear-brake-fluid-pot-bracket-shadow%88       25       60  ok (non-closed singly connected)
    motorBike_rr-wh-chain-hub-shadow%89       66      191  ok (non-closed singly connected)

Checking faceZone topology for multiply connected surfaces...
    No faceZones found.
  <<Writing 17 conflicting points to set nonManifoldPoints

Checking basic cellZone addressing...
    No cellZones found.

Checking geometry...
    Overall domain bounding box (-5 -4 0) (15 4 8)
    Mesh has 3 geometric (non-empty/wedge) directions (1 1 1)
    Mesh has 3 solution (non-empty) directions (1 1 1)
    Boundary openness (4.44683e-17 -4.24009e-17 -1.0137e-15) OK.
    Max cell openness = 7.43922e-16 OK.
    Max aspect ratio = 40.718 OK.
    Minimum face area = 1.18497e-06. Maximum face area = 1.01301.  Face area magnitudes OK.
    Min volume = 1.11941e-08. Max volume = 1.00664.  Total volume = 1279.67.  Cell volumes OK.
    Mesh non-orthogonality Max: 64.9924 average: 9.87843
    Non-orthogonality check OK.
    Face pyramids OK.
 ***Max skewness = 10.018, 17 highly skew faces detected which may impair the quality of the results
  <<Writing 17 skew faces to set skewFaces
    Coupled point location match (average 0) OK.

Failed 1 mesh checks.

End

